<?xml version="1.0" encoding="UTF-8"?>

<!-- generated on 12/01/15 09:59:13 by SUMO netconvert Version 0.24.0
<?xml version="1.0" encoding="UTF-8"?>

<configuration xmlns:xsi="http://www.w3.org/2001/XMLSchema-instance" xsi:noNamespaceSchemaLocation="http://sumo.dlr.de/xsd/netconvertConfiguration.xsd">

    <input>
        <node-files value="quickstart.nod.xml"/>
        <edge-files value="quickstart.edg.xml"/>
        <connection-files value="quickstart.con.xml"/>
        <type-files value="quickstart.typ.xml"/>
    </input>

    <output>
        <output-file value="quickstart.net.xml"/>
    </output>

    <processing>
        <no-turnarounds value="true"/>
    </processing>

    <report>
        <verbose value="true"/>
    </report>

</configuration>
-->

<net version="0.13" xmlns:xsi="http://www.w3.org/2001/XMLSchema-instance" xsi:noNamespaceSchemaLocation="http://sumo.dlr.de/xsd/net_file.xsd">

    <location netOffset="-5.00,-8.00" convBoundary="0.00,0.00,5075.00,1182.00" origBoundary="5.00,8.00,5080.00,1190.00" projParameter="!"/>

    <type id="a" priority="3" numLanes="2" speed="30.00"/>
    <type id="aa" priority="3" numLanes="3" speed="30.00"/>
    <type id="aaa" priority="3" numLanes="4" speed="40.00"/>
    <type id="b" priority="2" numLanes="2" speed="20.00"/>
    <type id="c" priority="1" numLanes="1" speed="20.00"/>

    <edge id=":1_0" function="internal">
        <lane id=":1_0_0" index="0" speed="30.00" length="4.53" shape="2143.60,1010.74 2138.45,1011.95"/>
        <lane id=":1_0_1" index="1" speed="30.00" length="4.53" shape="2142.12,1007.78 2138.45,1008.65"/>
    </edge>
    <edge id=":1_2" function="internal">
        <lane id=":1_2_0" index="0" speed="30.00" length="1.49" shape="2138.45,1002.05 2139.17,1001.88"/>
        <lane id=":1_2_1" index="1" speed="30.00" length="1.49" shape="2138.45,1005.35 2140.65,1004.83"/>
    </edge>
    <edge id=":11_0" function="internal">
        <lane id=":11_0_0" index="0" speed="25.00" length="5.67" shape="122.21,1001.93 116.93,1003.99"/>
    </edge>
    <edge id=":11_1" function="internal">
        <lane id=":11_1_0" index="0" speed="30.00" length="5.87" shape="122.21,1001.93 116.28,999.92"/>
        <lane id=":11_1_1" index="1" speed="30.00" length="5.87" shape="122.23,998.63 117.08,996.72"/>
    </edge>
    <edge id=":11_3" function="internal">
        <lane id=":11_3_0" index="0" speed="30.00" length="4.35" shape="118.69,990.32 122.27,992.03"/>
        <lane id=":11_3_1" index="1" speed="30.00" length="4.35" shape="117.88,993.52 122.25,995.33"/>
    </edge>
    <edge id=":12_0" function="internal">
        <lane id=":12_0_0" index="0" speed="30.00" length="6.77" shape="80.05,1023.24 80.05,1016.47"/>
        <lane id=":12_0_1" index="1" speed="30.00" length="6.77" shape="83.35,1023.24 83.35,1016.47"/>
    </edge>
    <edge id=":12_2" function="internal">
        <lane id=":12_2_0" index="0" speed="25.00" length="6.24" shape="93.67,1018.53 92.04,1019.69 90.88,1020.87 90.18,1022.05 89.95,1023.24"/>
    </edge>
    <edge id=":12_3" function="internal">
        <lane id=":12_3_0" index="0" speed="30.00" length="6.77" shape="89.95,1016.47 89.95,1023.24"/>
        <lane id=":12_3_1" index="1" speed="30.00" length="6.77" shape="86.65,1016.47 86.65,1023.24"/>
    </edge>
    <edge id=":13_0" function="internal">
        <lane id=":13_0_0" index="0" speed="30.00" length="16.61" shape="80.05,996.89 79.48,993.37 77.77,990.02 74.93,986.83 70.94,983.80"/>
    </edge>
    <edge id=":13_1" function="internal">
        <lane id=":13_1_0" index="0" speed="30.00" length="23.43" shape="80.05,996.89 80.05,990.42 80.05,985.17 80.05,979.93 80.05,973.46"/>
        <lane id=":13_1_1" index="1" speed="30.00" length="23.43" shape="83.35,996.89 83.35,990.42 83.35,985.17 83.35,979.93 83.35,973.46"/>
    </edge>
    <edge id=":13_3" function="internal">
        <lane id=":13_3_0" index="0" speed="30.00" length="6.85" shape="83.35,996.89 84.08,991.82 85.05,990.39"/>
    </edge>
    <edge id=":13_15" function="internal">
        <lane id=":13_15_0" index="0" speed="30.00" length="11.15" shape="85.05,990.39 86.26,988.62 89.90,987.27 94.99,987.80"/>
    </edge>
    <edge id=":13_4" function="internal">
        <lane id=":13_4_0" index="0" speed="30.00" length="5.32" shape="93.39,994.20 91.89,994.05 90.81,994.44 90.17,995.39 89.95,996.89"/>
    </edge>
    <edge id=":13_5" function="internal">
        <lane id=":13_5_0" index="0" speed="30.00" length="24.35" shape="93.39,994.20 86.97,992.32 81.68,990.13 76.63,987.38 70.94,983.80"/>
        <lane id=":13_5_1" index="1" speed="30.00" length="24.35" shape="94.19,991.00 87.93,989.18 82.98,987.14 78.27,984.54 72.74,981.03"/>
    </edge>
    <edge id=":13_7" function="internal">
        <lane id=":13_7_0" index="0" speed="30.00" length="7.14" shape="94.19,991.00 89.45,988.89 88.12,987.46"/>
    </edge>
    <edge id=":13_16" function="internal">
        <lane id=":13_16_0" index="0" speed="30.00" length="15.24" shape="88.12,987.46 86.06,985.26 84.03,980.12 83.35,973.46"/>
    </edge>
    <edge id=":13_8" function="internal">
        <lane id=":13_8_0" index="0" speed="30.00" length="13.57" shape="89.95,973.46 90.32,977.78 91.41,981.08 93.24,983.35 95.79,984.60"/>
    </edge>
    <edge id=":13_9" function="internal">
        <lane id=":13_9_0" index="0" speed="30.00" length="23.43" shape="89.95,973.46 89.95,979.93 89.95,985.17 89.95,990.42 89.95,996.89"/>
        <lane id=":13_9_1" index="1" speed="30.00" length="23.43" shape="86.65,973.46 86.65,979.93 86.65,985.17 86.65,990.42 86.65,996.89"/>
    </edge>
    <edge id=":13_11" function="internal">
        <lane id=":13_11_0" index="0" speed="30.00" length="5.95" shape="76.32,975.49 77.95,976.27 79.12,976.19 79.82,975.25 80.05,973.46"/>
    </edge>
    <edge id=":13_12" function="internal">
        <lane id=":13_12_0" index="0" speed="30.00" length="22.20" shape="76.32,975.49 81.54,978.86 85.57,981.17 89.84,982.91 95.79,984.60"/>
        <lane id=":13_12_1" index="1" speed="30.00" length="22.20" shape="74.53,978.26 79.90,981.70 84.27,984.16 88.88,986.05 94.99,987.80"/>
    </edge>
    <edge id=":13_14" function="internal">
        <lane id=":13_14_0" index="0" speed="30.00" length="9.69" shape="74.53,978.26 79.83,982.36 81.76,984.64"/>
    </edge>
    <edge id=":13_17" function="internal">
        <lane id=":13_17_0" index="0" speed="30.00" length="13.49" shape="81.76,984.64 83.62,986.84 85.89,991.68 86.65,996.89"/>
    </edge>
    <edge id=":2_0" function="internal">
        <lane id=":2_0_0" index="0" speed="30.00" length="19.55" shape="1756.50,1011.95 1750.70,1011.95 1746.72,1011.95 1742.75,1011.95 1736.95,1011.95"/>
        <lane id=":2_0_1" index="1" speed="30.00" length="19.55" shape="1756.50,1008.65 1750.70,1008.65 1746.72,1008.65 1742.75,1008.65 1736.95,1008.65"/>
    </edge>
    <edge id=":2_2" function="internal">
        <lane id=":2_2_0" index="0" speed="25.00" length="7.98" shape="1749.95,998.95 1750.36,1000.31 1751.59,1001.27 1753.63,1001.86 1756.50,1002.05"/>
    </edge>
    <edge id=":2_3" function="internal">
        <lane id=":2_3_0" index="0" speed="25.00" length="15.64" shape="1746.65,998.95 1746.04,1003.19 1744.23,1006.23 1741.19,1008.04 1736.95,1008.65"/>
    </edge>
    <edge id=":2_4" function="internal">
        <lane id=":2_4_0" index="0" speed="30.00" length="19.55" shape="1736.95,1002.05 1742.75,1002.05 1746.72,1002.05 1750.70,1002.05 1756.50,1002.05"/>
        <lane id=":2_4_1" index="1" speed="30.00" length="19.55" shape="1736.95,1005.35 1742.75,1005.35 1746.72,1005.35 1750.70,1005.35 1756.50,1005.35"/>
    </edge>
    <edge id=":31_0" function="internal">
        <lane id=":31_0_0" index="0" speed="30.00" length="5.00" shape="80.05,1119.98 80.05,1114.98"/>
        <lane id=":31_0_1" index="1" speed="30.00" length="5.00" shape="83.35,1119.98 83.35,1114.98"/>
    </edge>
    <edge id=":31_2" function="internal">
        <lane id=":31_2_0" index="0" speed="25.00" length="13.74" shape="83.35,1119.98 84.00,1115.40 85.95,1113.61 89.20,1114.61 91.55,1116.58"/>
    </edge>
    <edge id=":31_6" function="internal">
        <lane id=":31_6_0" index="0" speed="25.00" length="2.86" shape="91.55,1116.58 93.74,1118.41"/>
    </edge>
    <edge id=":31_3" function="internal">
        <lane id=":31_3_0" index="0" speed="25.00" length="8.80" shape="89.95,1114.98 90.33,1113.16 91.48,1112.74 93.40,1113.71 96.08,1116.08"/>
    </edge>
    <edge id=":31_4" function="internal">
        <lane id=":31_4_0" index="0" speed="30.00" length="5.00" shape="89.95,1114.98 89.95,1119.98"/>
        <lane id=":31_4_1" index="1" speed="30.00" length="5.00" shape="86.65,1114.98 86.65,1119.98"/>
    </edge>
    <edge id=":4_0" function="internal">
        <lane id=":4_0_0" index="0" speed="30.00" length="16.16" shape="1673.05,1011.95 1668.25,1011.95 1664.96,1011.94 1661.68,1011.93 1656.88,1011.90"/>
        <lane id=":4_0_1" index="1" speed="30.00" length="16.16" shape="1673.05,1008.65 1668.25,1008.65 1664.97,1008.64 1661.69,1008.63 1656.90,1008.60"/>
    </edge>
    <edge id=":4_2" function="internal">
        <lane id=":4_2_0" index="0" speed="25.00" length="6.41" shape="1673.05,1008.65 1668.81,1008.04 1666.99,1006.95"/>
    </edge>
    <edge id=":4_8" function="internal">
        <lane id=":4_8_0" index="0" speed="25.00" length="9.27" shape="1666.99,1006.95 1665.78,1006.21 1663.96,1003.17 1663.35,998.91"/>
    </edge>
    <edge id=":4_3" function="internal">
        <lane id=":4_3_0" index="0" speed="25.00" length="5.03" shape="1669.95,998.91 1670.14,1000.28 1670.73,1001.26 1671.69,1001.85 1673.05,1002.05"/>
    </edge>
    <edge id=":4_4" function="internal">
        <lane id=":4_4_0" index="0" speed="25.00" length="15.70" shape="1666.65,998.91 1666.04,1003.17 1664.21,1006.21 1661.16,1008.02 1656.90,1008.60"/>
    </edge>
    <edge id=":4_5" function="internal">
        <lane id=":4_5_0" index="0" speed="25.00" length="5.01" shape="1656.94,1002.00 1658.30,1001.81 1659.27,1001.24 1659.86,1000.27 1660.05,998.91"/>
    </edge>
    <edge id=":4_6" function="internal">
        <lane id=":4_6_0" index="0" speed="30.00" length="16.12" shape="1656.94,1002.00 1661.72,1002.03 1664.99,1002.04 1668.27,1002.05 1673.05,1002.05"/>
        <lane id=":4_6_1" index="1" speed="30.00" length="16.12" shape="1656.92,1005.30 1661.71,1005.33 1664.98,1005.34 1668.26,1005.35 1673.05,1005.35"/>
    </edge>
    <edge id=":40_0" function="internal">
        <lane id=":40_0_0" index="0" speed="30.00" length="20.54" shape="2948.20,76.83 2942.42,77.69 2938.78,79.57 2935.35,82.26 2930.24,85.57"/>
        <lane id=":40_0_1" index="1" speed="30.00" length="20.54" shape="2948.20,76.83 2942.18,77.24 2937.99,78.11 2934.04,79.81 2928.68,82.66"/>
    </edge>
    <edge id=":40_2" function="internal">
        <lane id=":40_2_0" index="0" speed="30.00" length="22.38" shape="2948.20,76.83 2942.09,76.49 2937.60,75.03 2933.02,72.67 2926.63,69.64"/>
        <lane id=":40_2_1" index="1" speed="30.00" length="22.38" shape="2948.08,73.54 2942.10,73.19 2937.93,71.76 2933.80,69.48 2927.91,66.59"/>
    </edge>
    <edge id=":40_4" function="internal">
        <lane id=":40_4_0" index="0" speed="30.00" length="10.69" shape="2925.55,76.85 2927.13,75.73 2927.63,74.66 2927.03,73.64 2925.35,72.68"/>
        <lane id=":40_4_1" index="1" speed="30.00" length="10.69" shape="2927.11,79.76 2930.96,77.04 2932.16,74.44 2930.72,71.98 2926.63,69.64"/>
    </edge>
    <edge id=":40_6" function="internal">
        <lane id=":40_6_0" index="0" speed="30.00" length="24.06" shape="2927.11,79.76 2932.66,75.81 2937.03,71.71 2941.62,68.43 2947.84,66.94"/>
        <lane id=":40_6_1" index="1" speed="30.00" length="24.06" shape="2927.11,79.76 2932.68,76.32 2937.09,73.36 2941.72,71.22 2947.96,70.24"/>
    </edge>
    <edge id=":41_0" function="internal">
        <lane id=":41_0_0" index="0" speed="25.00" length="16.07" shape="3085.62,81.94 3081.88,77.62 3078.58,74.56 3075.72,72.75 3073.31,72.20"/>
    </edge>
    <edge id=":41_1" function="internal">
        <lane id=":41_1_0" index="0" speed="25.00" length="10.95" shape="3088.19,79.88 3084.27,73.52 3084.16,70.05"/>
    </edge>
    <edge id=":41_12" function="internal">
        <lane id=":41_12_0" index="0" speed="25.00" length="13.07" shape="3084.16,70.05 3084.12,68.99 3087.76,66.28 3095.18,65.39"/>
    </edge>
    <edge id=":41_2" function="internal">
        <lane id=":41_2_0" index="0" speed="25.00" length="6.24" shape="3095.16,71.99 3093.23,72.22 3092.29,72.93 3092.33,74.11 3093.35,75.76"/>
    </edge>
    <edge id=":41_3" function="internal">
        <lane id=":41_3_0" index="0" speed="30.00" length="21.92" shape="3095.16,71.99 3088.94,71.96 3084.23,71.95 3079.53,72.01 3073.31,72.20"/>
        <lane id=":41_3_1" index="1" speed="30.00" length="21.92" shape="3095.17,68.69 3088.92,68.66 3084.18,68.65 3079.43,68.71 3073.19,68.90"/>
    </edge>
    <edge id=":41_5" function="internal">
        <lane id=":41_5_0" index="0" speed="35.00" length="18.38" shape="3081.95,51.86 3086.21,56.34 3089.84,59.53 3092.83,61.45 3095.19,62.09"/>
        <lane id=":41_5_1" index="1" speed="35.00" length="18.38" shape="3079.49,54.07 3084.27,59.02 3088.48,62.55 3092.12,64.68 3095.18,65.39"/>
    </edge>
    <edge id=":41_7" function="internal">
        <lane id=":41_7_0" index="0" speed="30.00" length="25.63" shape="3077.03,56.27 3081.90,62.55 3084.76,67.69 3087.19,72.50 3090.77,77.82"/>
    </edge>
    <edge id=":41_8" function="internal">
        <lane id=":41_8_0" index="0" speed="35.00" length="15.44" shape="3074.57,58.47 3077.86,62.89 3078.73,66.10 3077.17,68.11 3073.19,68.90"/>
    </edge>
    <edge id=":41_9" function="internal">
        <lane id=":41_9_0" index="0" speed="30.00" length="22.19" shape="3072.94,62.31 3079.23,62.11 3084.07,62.05 3088.90,62.06 3095.19,62.09"/>
        <lane id=":41_9_1" index="1" speed="30.00" length="22.19" shape="3073.07,65.61 3079.33,65.41 3084.12,65.35 3088.91,65.36 3095.18,65.39"/>
    </edge>
    <edge id=":41_11" function="internal">
        <lane id=":41_11_0" index="0" speed="25.00" length="5.92" shape="3073.07,65.61 3077.06,66.26 3078.71,67.13"/>
    </edge>
    <edge id=":41_13" function="internal">
        <lane id=":41_13_0" index="0" speed="25.00" length="16.25" shape="3078.71,67.13 3081.34,68.52 3085.91,72.37 3090.77,77.82"/>
    </edge>
    <edge id=":42_0" function="internal">
        <lane id=":42_0_0" index="0" speed="35.00" length="5.13" shape="3418.45,76.14 3418.25,74.73 3417.67,73.72 3416.69,73.11 3415.32,72.91"/>
    </edge>
    <edge id=":42_1" function="internal">
        <lane id=":42_1_0" index="0" speed="40.00" length="16.23" shape="3418.45,76.14 3418.45,71.32 3418.45,68.03 3418.45,64.73 3418.45,59.91"/>
        <lane id=":42_1_1" index="1" speed="40.00" length="16.23" shape="3421.75,76.14 3421.75,71.32 3421.75,68.03 3421.75,64.73 3421.75,59.91"/>
        <lane id=":42_1_2" index="2" speed="40.00" length="16.23" shape="3425.05,76.14 3425.05,71.32 3425.05,68.03 3425.05,64.73 3425.05,59.91"/>
        <lane id=":42_1_3" index="3" speed="40.00" length="16.23" shape="3428.35,76.14 3428.35,71.32 3428.35,68.03 3428.35,64.73 3428.35,59.91"/>
    </edge>
    <edge id=":42_5" function="internal">
        <lane id=":42_5_0" index="0" speed="35.00" length="5.36" shape="3428.35,76.14 3429.37,71.86 3430.05,71.19"/>
    </edge>
    <edge id=":42_18" function="internal">
        <lane id=":42_18_0" index="0" speed="35.00" length="15.96" shape="3430.05,71.19 3432.44,68.82 3437.55,67.02 3444.71,66.45"/>
    </edge>
    <edge id=":42_6" function="internal">
        <lane id=":42_6_0" index="0" speed="35.00" length="5.01" shape="3444.66,73.05 3443.30,73.24 3442.33,73.81 3441.74,74.78 3441.55,76.14"/>
    </edge>
    <edge id=":42_7" function="internal">
        <lane id=":42_7_0" index="0" speed="30.00" length="29.36" shape="3444.68,69.75 3437.28,69.70 3430.01,69.66 3422.73,69.63 3415.33,69.61"/>
    </edge>
    <edge id=":42_8" function="internal">
        <lane id=":42_8_0" index="0" speed="35.00" length="10.41" shape="3444.68,69.75 3437.54,69.10 3434.50,67.99"/>
    </edge>
    <edge id=":42_19" function="internal">
        <lane id=":42_19_0" index="0" speed="35.00" length="10.92" shape="3434.50,67.99 3432.43,67.24 3429.37,64.17 3428.35,59.91"/>
    </edge>
    <edge id=":42_9" function="internal">
        <lane id=":42_9_0" index="0" speed="35.00" length="5.17" shape="3441.55,59.91 3441.75,61.32 3442.35,62.33 3443.34,62.94 3444.73,63.15"/>
    </edge>
    <edge id=":42_10" function="internal">
        <lane id=":42_10_0" index="0" speed="40.00" length="16.23" shape="3441.55,59.91 3441.55,64.73 3441.55,68.03 3441.55,71.32 3441.55,76.14"/>
        <lane id=":42_10_1" index="1" speed="40.00" length="16.23" shape="3438.25,59.91 3438.25,64.73 3438.25,68.03 3438.25,71.32 3438.25,76.14"/>
        <lane id=":42_10_2" index="2" speed="40.00" length="16.23" shape="3434.95,59.91 3434.95,64.73 3434.95,68.03 3434.95,71.32 3434.95,76.14"/>
        <lane id=":42_10_3" index="3" speed="40.00" length="16.23" shape="3431.65,59.91 3431.65,64.73 3431.65,68.03 3431.65,71.32 3431.65,76.14"/>
    </edge>
    <edge id=":42_14" function="internal">
        <lane id=":42_14_0" index="0" speed="35.00" length="5.34" shape="3431.65,59.91 3430.63,64.17 3429.95,64.85"/>
    </edge>
    <edge id=":42_20" function="internal">
        <lane id=":42_20_0" index="0" speed="35.00" length="15.93" shape="3429.95,64.85 3427.57,67.21 3422.47,69.02 3415.33,69.61"/>
    </edge>
    <edge id=":42_15" function="internal">
        <lane id=":42_15_0" index="0" speed="35.00" length="5.00" shape="3415.35,63.01 3416.70,62.82 3417.67,62.24 3418.26,61.27 3418.45,59.91"/>
    </edge>
    <edge id=":42_16" function="internal">
        <lane id=":42_16_0" index="0" speed="30.00" length="29.37" shape="3415.34,66.31 3422.74,66.33 3430.02,66.37 3437.31,66.40 3444.71,66.45"/>
    </edge>
    <edge id=":42_17" function="internal">
        <lane id=":42_17_0" index="0" speed="35.00" length="10.41" shape="3415.34,66.31 3422.47,66.94 3425.52,68.05"/>
    </edge>
    <edge id=":42_21" function="internal">
        <lane id=":42_21_0" index="0" speed="35.00" length="10.92" shape="3425.52,68.05 3427.57,68.79 3430.63,71.86 3431.65,76.14"/>
    </edge>
    <edge id=":43_0" function="internal">
        <lane id=":43_0_0" index="0" speed="25.00" length="5.14" shape="3710.05,78.09 3709.85,76.70 3709.25,75.70 3708.26,75.10 3706.87,74.89"/>
    </edge>
    <edge id=":43_1" function="internal">
        <lane id=":43_1_0" index="0" speed="20.00" length="16.19" shape="3713.35,78.09 3713.35,73.29 3713.35,70.00 3713.35,66.71 3713.35,61.90"/>
    </edge>
    <edge id=":43_2" function="internal">
        <lane id=":43_2_0" index="0" speed="25.00" length="6.42" shape="3713.35,78.09 3713.96,73.83 3715.05,72.02"/>
    </edge>
    <edge id=":43_14" function="internal">
        <lane id=":43_14_0" index="0" speed="25.00" length="9.28" shape="3715.05,72.02 3715.79,70.79 3718.84,68.98 3723.10,68.40"/>
    </edge>
    <edge id=":43_3" function="internal">
        <lane id=":43_3_0" index="0" speed="25.00" length="5.01" shape="3723.06,75.00 3721.70,75.19 3720.73,75.76 3720.14,76.73 3719.95,78.09"/>
    </edge>
    <edge id=":43_4" function="internal">
        <lane id=":43_4_0" index="0" speed="30.00" length="16.19" shape="3723.06,75.00 3718.25,74.97 3714.96,74.95 3711.68,74.93 3706.87,74.89"/>
        <lane id=":43_4_1" index="1" speed="30.00" length="16.19" shape="3723.08,71.70 3718.28,71.67 3714.99,71.65 3711.70,71.63 3706.89,71.59"/>
    </edge>
    <edge id=":43_6" function="internal">
        <lane id=":43_6_0" index="0" speed="25.00" length="6.43" shape="3723.08,71.70 3718.82,71.07 3717.00,69.96"/>
    </edge>
    <edge id=":43_15" function="internal">
        <lane id=":43_15_0" index="0" speed="25.00" length="9.29" shape="3717.00,69.96 3715.78,69.22 3713.96,66.17 3713.35,61.90"/>
    </edge>
    <edge id=":43_7" function="internal">
        <lane id=":43_7_0" index="0" speed="25.00" length="5.13" shape="3719.95,61.90 3720.15,63.30 3720.74,64.29 3721.73,64.89 3723.12,65.10"/>
    </edge>
    <edge id=":43_8" function="internal">
        <lane id=":43_8_0" index="0" speed="20.00" length="16.19" shape="3716.65,61.90 3716.65,66.71 3716.65,70.00 3716.65,73.29 3716.65,78.09"/>
    </edge>
    <edge id=":43_9" function="internal">
        <lane id=":43_9_0" index="0" speed="25.00" length="6.42" shape="3716.65,61.90 3716.04,66.17 3714.95,67.98"/>
    </edge>
    <edge id=":43_16" function="internal">
        <lane id=":43_16_0" index="0" speed="25.00" length="9.29" shape="3714.95,67.98 3714.21,69.21 3711.16,71.01 3706.89,71.59"/>
    </edge>
    <edge id=":43_10" function="internal">
        <lane id=":43_10_0" index="0" speed="25.00" length="5.01" shape="3706.94,64.99 3708.30,64.81 3709.27,64.23 3709.86,63.26 3710.05,61.90"/>
    </edge>
    <edge id=":43_11" function="internal">
        <lane id=":43_11_0" index="0" speed="30.00" length="16.19" shape="3706.94,64.99 3711.74,65.03 3715.03,65.05 3718.32,65.07 3723.12,65.10"/>
        <lane id=":43_11_1" index="1" speed="30.00" length="16.19" shape="3706.92,68.29 3711.72,68.33 3715.01,68.35 3718.30,68.37 3723.10,68.40"/>
    </edge>
    <edge id=":43_13" function="internal">
        <lane id=":43_13_0" index="0" speed="25.00" length="6.44" shape="3706.92,68.29 3711.17,68.93 3712.99,70.04"/>
    </edge>
    <edge id=":43_17" function="internal">
        <lane id=":43_17_0" index="0" speed="25.00" length="9.29" shape="3712.99,70.04 3714.22,70.78 3716.04,73.83 3716.65,78.09"/>
    </edge>
    <edge id=":44_0" function="internal">
        <lane id=":44_0_0" index="0" speed="25.00" length="6.30" shape="4025.71,81.01 4025.36,79.22 4024.60,77.94 4023.44,77.16 4021.88,76.90"/>
    </edge>
    <edge id=":44_1" function="internal">
        <lane id=":44_1_0" index="0" speed="20.00" length="16.88" shape="4029.00,80.77 4028.63,75.77 4028.44,72.35 4028.36,68.92 4028.35,63.91"/>
    </edge>
    <edge id=":44_2" function="internal">
        <lane id=":44_2_0" index="0" speed="25.00" length="6.59" shape="4029.00,80.77 4029.31,76.21 4030.26,74.42"/>
    </edge>
    <edge id=":44_14" function="internal">
        <lane id=":44_14_0" index="0" speed="25.00" length="9.88" shape="4030.26,74.42 4031.03,72.97 4034.16,71.06 4038.69,70.48"/>
    </edge>
    <edge id=":44_3" function="internal">
        <lane id=":44_3_0" index="0" speed="25.00" length="5.11" shape="4038.59,77.08 4037.18,77.26 4036.21,77.85 4035.68,78.86 4035.58,80.27"/>
    </edge>
    <edge id=":44_4" function="internal">
        <lane id=":44_4_0" index="0" speed="30.00" length="16.73" shape="4038.59,77.08 4033.63,77.01 4030.23,76.96 4026.84,76.93 4021.88,76.90"/>
        <lane id=":44_4_1" index="1" speed="30.00" length="16.73" shape="4038.64,73.78 4033.67,73.71 4030.27,73.66 4026.87,73.63 4021.90,73.60"/>
    </edge>
    <edge id=":44_6" function="internal">
        <lane id=":44_6_0" index="0" speed="25.00" length="6.78" shape="4038.64,73.78 4034.14,73.10 4032.22,71.99"/>
    </edge>
    <edge id=":44_15" function="internal">
        <lane id=":44_15_0" index="0" speed="25.00" length="9.43" shape="4032.22,71.99 4030.92,71.23 4028.99,68.17 4028.35,63.91"/>
    </edge>
    <edge id=":44_7" function="internal">
        <lane id=":44_7_0" index="0" speed="25.00" length="5.68" shape="4034.95,63.91 4035.19,65.32 4035.90,66.33 4037.08,66.95 4038.74,67.18"/>
    </edge>
    <edge id=":44_8" function="internal">
        <lane id=":44_8_0" index="0" speed="20.00" length="16.63" shape="4031.65,63.91 4031.66,68.84 4031.74,72.22 4031.93,75.60 4032.29,80.52"/>
    </edge>
    <edge id=":44_9" function="internal">
        <lane id=":44_9_0" index="0" speed="25.00" length="6.35" shape="4031.65,63.91 4031.04,68.17 4029.99,69.92"/>
    </edge>
    <edge id=":44_16" function="internal">
        <lane id=":44_16_0" index="0" speed="25.00" length="9.35" shape="4029.99,69.92 4029.21,71.21 4026.16,73.02 4021.90,73.60"/>
    </edge>
    <edge id=":44_10" function="internal">
        <lane id=":44_10_0" index="0" speed="25.00" length="5.01" shape="4021.94,67.00 4023.30,66.81 4024.27,66.24 4024.86,65.27 4025.05,63.91"/>
    </edge>
    <edge id=":44_11" function="internal">
        <lane id=":44_11_0" index="0" speed="30.00" length="16.79" shape="4021.94,67.00 4026.93,67.03 4030.34,67.06 4033.75,67.11 4038.74,67.18"/>
        <lane id=":44_11_1" index="1" speed="30.00" length="16.79" shape="4021.92,70.30 4026.90,70.33 4030.30,70.36 4033.71,70.41 4038.69,70.48"/>
    </edge>
    <edge id=":44_13" function="internal">
        <lane id=":44_13_0" index="0" speed="25.00" length="6.38" shape="4021.92,70.30 4026.17,70.96 4027.94,72.04"/>
    </edge>
    <edge id=":44_17" function="internal">
        <lane id=":44_17_0" index="0" speed="25.00" length="9.95" shape="4027.94,72.04 4029.32,72.88 4031.36,76.07 4032.29,80.52"/>
    </edge>
    <edge id=":45_0" function="internal">
        <lane id=":45_0_0" index="0" speed="25.00" length="6.27" shape="4225.05,83.11 4224.77,81.69 4223.93,80.67 4222.53,80.04 4220.58,79.81"/>
    </edge>
    <edge id=":45_1" function="internal">
        <lane id=":45_1_0" index="0" speed="20.00" length="17.17" shape="4228.35,83.11 4228.31,78.02 4228.12,74.54 4227.67,71.07 4226.84,66.05"/>
    </edge>
    <edge id=":45_2" function="internal">
        <lane id=":45_2_0" index="0" speed="25.00" length="6.27" shape="4228.35,83.11 4228.96,78.84 4229.97,77.17"/>
    </edge>
    <edge id=":45_14" function="internal">
        <lane id=":45_14_0" index="0" speed="25.00" length="9.46" shape="4229.97,77.17 4230.79,75.80 4233.85,74.00 4238.13,73.43"/>
    </edge>
    <edge id=":45_3" function="internal">
        <lane id=":45_3_0" index="0" speed="25.00" length="5.01" shape="4238.07,80.03 4236.70,80.21 4235.73,80.78 4235.14,81.75 4234.95,83.11"/>
    </edge>
    <edge id=":45_4" function="internal">
        <lane id=":45_4_0" index="0" speed="30.00" length="17.48" shape="4238.07,80.03 4232.87,79.98 4229.32,79.94 4225.77,79.89 4220.58,79.81"/>
        <lane id=":45_4_1" index="1" speed="30.00" length="17.48" shape="4238.10,76.73 4232.91,76.68 4229.36,76.64 4225.81,76.59 4220.63,76.51"/>
    </edge>
    <edge id=":45_6" function="internal">
        <lane id=":45_6_0" index="0" speed="25.00" length="6.35" shape="4238.10,76.73 4233.83,76.03 4232.10,74.97"/>
    </edge>
    <edge id=":45_15" function="internal">
        <lane id=":45_15_0" index="0" speed="25.00" length="10.73" shape="4232.10,74.97 4230.53,74.01 4228.20,70.69 4226.84,66.05"/>
    </edge>
    <edge id=":45_7" function="internal">
        <lane id=":45_7_0" index="0" speed="25.00" length="7.75" shape="4233.35,64.96 4233.97,67.21 4234.98,68.82 4236.37,69.79 4238.16,70.13"/>
    </edge>
    <edge id=":45_8" function="internal">
        <lane id=":45_8_0" index="0" speed="20.00" length="17.71" shape="4230.09,65.51 4230.95,70.69 4231.42,74.26 4231.61,77.86 4231.65,83.11"/>
    </edge>
    <edge id=":45_9" function="internal">
        <lane id=":45_9_0" index="0" speed="25.00" length="6.79" shape="4230.09,65.51 4230.20,70.38 4229.42,72.13"/>
    </edge>
    <edge id=":45_16" function="internal">
        <lane id=":45_16_0" index="0" speed="25.00" length="10.54" shape="4229.42,72.13 4228.66,73.84 4225.46,75.89 4220.63,76.51"/>
    </edge>
    <edge id=":45_10" function="internal">
        <lane id=":45_10_0" index="0" speed="25.00" length="5.23" shape="4220.72,69.91 4222.18,69.72 4223.15,69.11 4223.61,68.06 4223.58,66.59"/>
    </edge>
    <edge id=":45_11" function="internal">
        <lane id=":45_11_0" index="0" speed="30.00" length="17.45" shape="4220.72,69.91 4225.90,69.99 4229.44,70.04 4232.98,70.08 4238.16,70.13"/>
        <lane id=":45_11_1" index="1" speed="30.00" length="17.45" shape="4220.68,73.21 4225.86,73.29 4229.40,73.34 4232.95,73.38 4238.13,73.43"/>
    </edge>
    <edge id=":45_13" function="internal">
        <lane id=":45_13_0" index="0" speed="25.00" length="7.18" shape="4220.68,73.21 4225.48,73.89 4227.52,75.01"/>
    </edge>
    <edge id=":45_17" function="internal">
        <lane id=":45_17_0" index="0" speed="25.00" length="9.60" shape="4227.52,75.01 4228.91,75.77 4230.96,78.84 4231.65,83.11"/>
    </edge>
    <edge id=":46_0" function="internal">
        <lane id=":46_0_0" index="0" speed="25.00" length="5.15" shape="4447.91,82.00 4446.56,82.20 4445.58,82.80 4444.98,83.82 4444.76,85.26"/>
    </edge>
    <edge id=":46_1" function="internal">
        <lane id=":46_1_0" index="0" speed="30.00" length="16.24" shape="4447.91,82.00 4443.08,81.97 4439.78,81.95 4436.48,81.92 4431.66,81.87"/>
        <lane id=":46_1_1" index="1" speed="30.00" length="16.24" shape="4447.93,78.70 4443.11,78.67 4439.81,78.65 4436.51,78.62 4431.69,78.57"/>
    </edge>
    <edge id=":46_3" function="internal">
        <lane id=":46_3_0" index="0" speed="25.00" length="6.32" shape="4447.93,78.70 4443.74,78.06 4441.97,76.96"/>
    </edge>
    <edge id=":46_14" function="internal">
        <lane id=":46_14_0" index="0" speed="25.00" length="9.48" shape="4441.97,76.96 4440.71,76.18 4438.84,73.08 4438.13,68.76"/>
    </edge>
    <edge id=":46_4" function="internal">
        <lane id=":46_4_0" index="0" speed="25.00" length="5.41" shape="4444.73,68.58 4444.96,70.11 4445.58,71.21 4446.59,71.87 4447.97,72.10"/>
    </edge>
    <edge id=":46_5" function="internal">
        <lane id=":46_5_0" index="0" speed="20.00" length="16.51" shape="4441.43,68.67 4441.55,73.57 4441.60,76.92 4441.57,80.28 4441.46,85.18"/>
    </edge>
    <edge id=":46_6" function="internal">
        <lane id=":46_6_0" index="0" speed="25.00" length="6.50" shape="4441.43,68.67 4440.92,73.04 4439.87,74.86"/>
    </edge>
    <edge id=":46_15" function="internal">
        <lane id=":46_15_0" index="0" speed="25.00" length="9.47" shape="4439.87,74.86 4439.13,76.14 4436.05,77.99 4431.69,78.57"/>
    </edge>
    <edge id=":46_7" function="internal">