<?xml version="1.0" encoding="UTF-8"?>
<routes>
  <vType id="CarA" length="5.0" color="0,1,0" accel="2.6" decel="4.5" tau="1.0" stepping="1.0" sigma="0.0" impatience="0.0" minGap="0.5" maxSpeed="70.0"/>
  <vType id="CarM" length="5.0" color="1,0,0" accel="2.6" decel="4.5" tau="3.0" stepping="1.0" sigma="0.0" impatience="0.0" minGap="2.0" maxSpeed="70.0"/>

  <route id="1" edges="E1 G1b G6b G7b G8b"/>
  <route id="2" edges="E1 G2 E2"/>
  <route id="3" edges="E1 G2 G3 G4 N1b"/>
  <route id="4" edges="E1 G2 G3 G4 G5b"/>
  <route id="5" edges="E1 G2 G3 M1 N3 N4"/>
  <route id="6" edges="E1 G2 G3 M1 N3 E3"/>
  <route id="7" edges="E1 G1b G6b G7b G8b H1b H2b H3b H4b H5b H6b H7b H8b H9b H10b H11b"/>
  <route id="8" edges="E1 G1b G6b G7b G8b H1b H2b H3b H4b H5b H6b H7b H8b F4"/>
  <route id="9" edges="E1 G1b G6b G7b G8b H1b H2b H3b H4b H5b H6b H7b F5"/>
  <route id="10" edges="E1 G1b G6b G7b G8b H1b H2b H3b H4b H5b H6b H7b F6"/>
  <route id="11" edges="E1 G1b G6b G7b G8b H1b H2b H3b H4b H5b H6b F7"/>
  <route id="12" edges="E1 G1b G6b G7b G8b H1b H2b H3b H4b H5b H6b F8"/>
  <route id="13" edges="E1 G1b G6b G7b G8b H1b H2b H3b H4b H5b F9"/>
  <route id="14" edges="E1 G1b G6b G7b G8b H1b H2b H3b H4b H5b F10"/>
  <route id="15" edges="E1 G1b G6b G7b G8b H1b H2b H3b H4b F11"/>
  <route id="16" edges="E1 G1b G6b G7b G8b H1b H2b H3b H4b F12"/>
  <route id="17" edges="E1 G1b G6b G7b G8b H1b H2b H3b F13"/>
  <route id="18" edges="E1 G1b G6b G7b G8b H1b H2b H3b F14"/>
  <route id="19" edges="E1 G1b G6b G7b G8b H1b H2b F15"/>
  <route id="20" edges="E1 G1b G6b G7b G8b H1b F17"/>
  <route id="21" edges="E1 G1b G6b G7b F18"/>
  <route id="22" edges="E2b G2b G1b G6b G7b G8b"/>
  <route id="23" edges="E2b G3 G4 N1b"/>
  <route id="24" edges="E2b G3 G4 G5b"/>
  <route id="25" edges="E2b G3 M1 N3 N4"/>
  <route id="26" edges="E2b G3 M1 N3 E3"/>
  <route id="27" edges="E2b G2b G1b G6b G7b G8b H1b H2b H3b H4b H5b H6b H7b H8b H9b H10b H11b"/>
  <route id="28" edges="E2b G2b G1b G6b G7b G8b H1b H2b H3b H4b H5b H6b H7b H8b F4"/>
  <route id="29" edges="E2b G2b G1b G6b G7b G8b H1b H2b H3b H4b H5b H6b H7b F5"/>
  <route id="30" edges="E2b G2b G1b G6b G7b G8b H1b H2b H3b H4b H5b H6b H7b F6"/>
  <route id="31" edges="E2b G2b G1b G6b G7b G8b H1b H2b H3b H4b H5b H6b F7"/>
  <route id="32" edges="E2b G2b G1b G6b G7b G8b H1b H2b H3b H4b H5b H6b F8"/>
  <route id="33" edges="E2b G2b G1b G6b G7b G8b H1b H2b H3b H4b H5b F9"/>
  <route id="34" edges="E2b G2b G1b G6b G7b G8b H1b H2b H3b H4b H5b F10"/>
  <route id="35" edges="E2b G2b G1b G6b G7b G8b H1b H2b H3b H4b F11"/>
  <route id="36" edges="E2b G2b G1b G6b G7b G8b H1b H2b H3b H4b F12"/>
  <route id="37" edges="E2b G2b G1b G6b G7b G8b H1b H2b H3b F13"/>
  <route id="38" edges="E2b G2b G1b G6b G7b G8b H1b H2b H3b F14"/>
  <route id="39" edges="E2b G2b G1b G6b G7b G8b H1b H2b F15"/>
  <route id="40" edges="E2b G2b G1b G6b G7b G8b H1b F17"/>
  <route id="41" edges="E2b G2b G1b G6b G7b F18"/>
  <route id="42" edges="N1 G4b G3b G2b G1b G6b G7b G8b"/>
  <route id="43" edges="N1 G4b G3b E2"/>
  <route id="44" edges="N1 G5b"/>
  <route id="45" edges="N1 N2 N3 N4"/>
  <route id="46" edges="N1 N2 N3 E3"/>
  <route id="47" edges="N1 G4b G3b G2b G1b G6b G7b G8b H1b H2b H3b H4b H5b H6b H7b H8b H9b H10b H11b"/>
  <route id="48" edges="N1 G4b G3b G2b G1b G6b G7b G8b H1b H2b H3b H4b H5b H6b H7b H8b F4"/>
  <route id="49" edges="N1 G4b G3b G2b G1b G6b G7b G8b H1b H2b H3b H4b H5b H6b H7b F5"/>
  <route id="50" edges="N1 G4b G3b G2b G1b G6b G7b G8b H1b H2b H3b H4b H5b H6b H7b F6"/>
  <route id="51" edges="N1 G4b G3b G2b G1b G6b G7b G8b H1b H2b H3b H4b H5b H6b F7"/>
  <route id="52" edges="N1 G4b G3b G2b G1b G6b G7b G8b H1b H2b H3b H4b H5b H6b F8"/>
  <route id="53" edges="N1 G4b G3b G2b G1b G6b G7b G8b H1b H2b H3b H4b H5b F9"/>
  <route id="54" edges="N1 G4b G3b G2b G1b G6b G7b G8b H1b H2b H3b H4b H5b F10"/>
  <route id="55" edges="N1 G4b G3b G2b G1b G6b G7b G8b H1b H2b H3b H4b F11"/>
  <route id="56" edges="N1 G4b G3b G2b G1b G6b G7b G8b H1b H2b H3b H4b F12"/>
  <route id="57" edges="N1 G4b G3b G2b G1b G6b G7b G8b H1b H2b H3b F13"/>
  <route id="58" edges="N1 G4b G3b G2b G1b G6b G7b G8b H1b H2b H3b F14"/>
  <route id="59" edges="N1 G4b G3b G2b G1b G6b G7b G8b H1b H2b F15"/>
  <route id="60" edges="N1 G4b G3b G2b G1b G6b G7b G8b H1b F17"/>
  <route id="61" edges="N1 G4b G3b G2b G1b G6b G7b F18"/>
  <route id="62" edges="G5 G4b G3b G2b G1b G6b G7b G8b"/>
  <route id="63" edges="G5 G4b G3b E2"/>
  <route id="64" edges="G5 N1b"/>
  <route id="65" edges="G5 N2 N3 N4"/>
  <route id="66" edges="G5 N2 N3 E3"/>
  <route id="67" edges="G5 G4b G3b G2b G1b G6b G7b G8b H1b H2b H3b H4b H5b H6b H7b H8b H9b H10b H11b"/>
  <route id="68" edges="G5 G4b G3b G2b G1b G6b G7b G8b H1b H2b H3b H4b H5b H6b H7b H8b F4"/>
  <route id="69" edges="G5 G4b G3b G2b G1b G6b G7b G8b H1b H2b H3b H4b H5b H6b H7b F5"/>
  <route id="70" edges="G5 G4b G3b G2b G1b G6b G7b G8b H1b H2b H3b H4b H5b H6b H7b F6"/>
  <route id="71" edges="G5 G4b G3b G2b G1b G6b G7b G8b H1b H2b H3b H4b H5b H6b F7"/>
  <route id="72" edges="G5 G4b G3b G2b G1b G6b G7b G8b H1b H2b H3b H4b H5b H6b F8"/>
  <route id="73" edges="G5 G4b G3b G2b G1b G6b G7b G8b H1b H2b H3b H4b H5b F9"/>
  <route id="74" edges="G5 G4b G3b G2b G1b G6b G7b G8b H1b H2b H3b H4b H5b F10"/>
  <route id="75" edges="G5 G4b G3b G2b G1b G6b G7b G8b H1b H2b H3b H4b F11"/>
  <route id="76" edges="G5 G4b G3b G2b G1b G6b G7b G8b H1b H2b H3b H4b F12"/>
  <route id="77" edges="G5 G4b G3b G2b G1b G6b G7b G8b H1b H2b H3b F13"/>
  <route id="78" edges="G5 G4b G3b G2b G1b G6b G7b G8b H1b H2b H3b F14"/>
  <route id="79" edges="G5 G4b G3b G2b G1b G6b G7b G8b H1b H2b F15"/>
  <route id="80" edges="G5 G4b G3b G2b G1b G6b G7b G8b H1b F17"/>
  <route id="81" edges="G5 G4b G3b G2b G1b G6b G7b F18"/>
  <route id="82" edges="N4b N3b N2b G4b G3b G2b G1b G6b G7b G8b"/>
  <route id="83" edges="N4b N3b N2b G4b G3b E2"/>
  <route id="84" edges="N4b N3b N2b N1b"/>
  <route id="85" edges="N4b N3b N2b G5b"/>
  <route id="86" edges="N4b E3"/>
  <route id="87" edges="N4b N3b N2b G4b G3b G2b G1b G6b G7b G8b H1b H2b H3b H4b H5b H6b H7b H8b H9b H10b H11b"/>
  <route id="88" edges="N4b N3b N2b G4b G3b G2b G1b G6b G7b G8b H1b H2b H3b H4b H5b H6b H7b H8b F4"/>
  <route id="89" edges="N4b N3b N2b G4b G3b G2b G1b G6b G7b G8b H1b H2b H3b H4b H5b H6b H7b F5"/>
  <route id="90" edges="N4b N3b N2b G4b G3b G2b G1b G6b G7b G8b H1b H2b H3b H4b H5b H6b H7b F6"/>
  <route id="91" edges="N4b N3b N2b G4b G3b G2b G1b G6b G7b G8b H1b H2b H3b H4b H5b H6b F7"/>
  <route id="92" edges="N4b N3b N2b G4b G3b G2b G1b G6b G7b G8b H1b H2b H3b H4b H5b H6b F8"/>
  <route id="93" edges="N4b N3b N2b G4b G3b G2b G1b G6b G7b G8b H1b H2b H3b H4b H5b F9"/>
  <route id="94" edges="N4b N3b N2b G4b G3b G2b G1b G6b G7b G8b H1b H2b H3b H4b H5b F10"/>
  <route id="95" edges="N4b N3b N2b G4b G3b G2b G1b G6b G7b G8b H1b H2b H3b H4b F11"/>
  <route id="96" edges="N4b N3b N2b G4b G3b G2b G1b G6b G7b G8b H1b H2b H3b H4b F12"/>
  <route id="97" edges="N4b N3b N2b G4b G3b G2b G1b G6b G7b G8b H1b H2b H3b F13"/>
  <route id="98" edges="N4b N3b N2b G4b G3b G2b G1b G6b G7b G8b H1b H2b H3b F14"/>
  <route id="99" edges="N4b N3b N2b G4b G3b G2b G1b G6b G7b G8b H1b H2b F15"/>
  <route id="100" edges="N4b N3b N2b G4b G3b G2b G1b G6b G7b G8b H1b F17"/>
  <route id="101" edges="N4b N3b N2b G4b G3b G2b G1b G6b G7b F18"/>
  <route id="102" edges="H11 H10 H9 H8 H7 H6 H5 H4 H3 H2 H1"/>
  <route id="103" edges="H11 H10 H9 H8 H7 H6 H5 H4 H3 H2 H1 G8 G7 G6 G1 G2 E2"/>
  <route id="104" edges="H11 H10 H9 H8 H7 H6 H5 H4 H3 H2 H1 G8 G7 G6 G1 G2 G3 G4 N1b"/>
  <route id="105" edges="H11 H10 H9 H8 H7 H6 H5 H4 H3 H2 H1 G8 G7 G6 G1 G2 G3 G4 G5b"/>
  <route id="106" edges="H11 H10 H9 H8 H7 H6 H5 H4 H3 H2 H1 G8 G7 G6 G1 G2 G3 M1 N3 N4"/>
  <route id="107" edges="H11 H10 H9 H8 H7 H6 H5 H4 H3 H2 H1 G8 G7 G6 G1 G2 G3 M1 N3 E3"/>
  <route id="108" edges="H11 H10 F2"/>
  <route id="109" edges="H11 H10 H9 F4"/>
  <route id="110" edges="H11 H10 H9 H8 F5"/>
  <route id="111" edges="H11 H10 H9 H8 F6"/>
  <route id="112" edges="H11 H10 H9 H8 H7 F7"/>
  <route id="113" edges="H11 H10 H9 H8 H7 F8"/>
  <route id="114" edges="H11 H10 H9 H8 H7 H6 F9"/>
  <route id="115" edges="H11 H10 H9 H8 H7 H6 F10"/>
  <route id="116" edges="H11 H10 H9 H8 H7 H6 H5 F11"/>
  <route id="117" edges="H11 H10 H9 H8 H7 H6 H5 F12"/>
  <route id="118" edges="H11 H10 H9 H8 H7 H6 H5 H4 F13"/>
  <route id="119" edges="H11 H10 H9 H8 H7 H6 H5 H4 F14"/>
  <route id="120" edges="H11 H10 H9 H8 H7 H6 H5 H4 H3 F15"/>
  <route id="121" edges="H11 H10 H9 H8 H7 H6 H5 H4 H3 H2 F17"/>
  <route id="122" edges="H11 H10 H9 H8 H7 H6 H5 H4 H3 H2 H1 G8 F18"/>
  <route id="123" edges="F1b H10 H9 H8 H7 H6 H5 H4 H3 H2 H1"/>
  <route id="124" edges="F1b H10 H9 H8 H7 H6 H5 H4 H3 H2 H1 G8 G7 G6 G1 G2 E2"/>
  <route id="125" edges="F1b H10 H9 H8 H7 H6 H5 H4 H3 H2 H1 G8 G7 G6 G1 G2 G3 G4 N1b"/>
  <route id="126" edges="F1b H10 H9 H8 H7 H6 H5 H4 H3 H2 H1 G8 G7 G6 G1 G2 G3 G4 G5b"/>
  <route id="127" edges="F1b H10 H9 H8 H7 H6 H5 H4 H3 H2 H1 G8 G7 G6 G1 G2 G3 M1 N3 N4"/>
  <route id="128" edges="F1b H10 H9 H8 H7 H6 H5 H4 H3 H2 H1 G8 G7 G6 G1 G2 G3 M1 N3 E3"/>
  <route id="129" edges="F1b H11b"/>
  <route id="130" edges="F1b H10 F2"/>
  <route id="131" edges="F1b H10 H9 F4"/>
  <route id="132" edges="F1b H10 H9 H8 F5"/>
  <route id="133" edges="F1b H10 H9 H8 F6"/>
  <route id="134" edges="F1b H10 H9 H8 H7 F7"/>
  <route id="135" edges="F1b H10 H9 H8 H7 F8"/>
  <route id="136" edges="F1b H10 H9 H8 H7 H6 F9"/>
  <route id="137" edges="F1b H10 H9 H8 H7 H6 F10"/>
  <route id="138" edges="F1b H10 H9 H8 H7 H6 H5 F11"/>
  <route id="139" edges="F1b H10 H9 H8 H7 H6 H5 F12"/>
  <route id="140" edges="F1b H10 H9 H8 H7 H6 H5 H4 F13"/>
  <route id="141" edges="F1b H10 H9 H8 H7 H6 H5 H4 F14"/>
  <route id="142" edges="F1b H10 H9 H8 H7 H6 H5 H4 H3 F15"/>
  <route id="143" edges="F1b H10 H9 H8 H7 H6 H5 H4 H3 H2 F17"/>
  <route id="144" edges="F1b H10 H9 H8 H7 H6 H5 H4 H3 H2 H1 G8 F18"/>
  <route id="145" edges="F3 H8 H7 H6 H5 H4 H3 H2 H1"/>
  <route id="146" edges="F3 H8 H7 H6 H5 H4 H3 H2 H1 G8 G7 G6 G1 G2 E2"/>
  <route id="147" edges="F3 H8 H7 H6 H5 H4 H3 H2 H1 G8 G7 G6 G1 G2 G3 G4 N1b"/>
  <route id="148" edges="F3 H8 H7 H6 H5 H4 H3 H2 H1 G8 G7 G6 G1 G2 G3 G4 G5b"/>
  <route id="149" edges="F3 H8 H7 H6 H5 H4 H3 H2 H1 G8 G7 G6 G1 G2 G3 M1 N3 N4"/>
  <route id="150" edges="F3 H8 H7 H6 H5 H4 H3 H2 H1 G8 G7 G6 G1 G2 G3 M1 N3 E3"/>
  <route id="151" edges="F3 H9b H10b H11b"/>
  <route id="152" edges="F3 H8 F5"/>
  <route id="153" edges="F3 H8 F6"/>
  <route id="154" edges="F3 H8 H7 F7"/>
  <route id="155" edges="F3 H8 H7 F8"/>
  <route id="156" edges="F3 H8 H7 H6 F9"/>
  <route id="157" edges="F3 H8 H7 H6 F10"/>
  <route id="158" edges="F3 H8 H7 H6 H5 F11"/>
  <route id="159" edges="F3 H8 H7 H6 H5 F12"/>
  <route id="160" edges="F3 H8 H7 H6 H5 H4 F13"/>
  <route id="161" edges="F3 H8 H7 H6 H5 H4 F14"/>
  <route id="162" edges="F3 H8 H7 H6 H5 H4 H3 F15"/>
  <route id="163" edges="F3 H8 H7 H6 H5 H4 H3 H2 F17"/>
  <route id="164" edges="F3 H8 H7 H6 H5 H4 H3 H2 H1 G8 F18"/>
  <route id="165" edges="F4b H8 H7 H6 H5 H4 H3 H2 H1"/>
  <route id="166" edges="F4b H8 H7 H6 H5 H4 H3 H2 H1 G8 G7 G6 G1 G2 E2"/>
  <route id="167" edges="F4b H8 H7 H6 H5 H4 H3 H2 H1 G8 G7 G6 G1 G2 G3 G4 N1b"/>
  <route id="168" edges="F4b H8 H7 H6 H5 H4 H3 H2 H1 G8 G7 G6 G1 G2 G3 G4 G5b"/>
  <route id="169" edges="F4b H8 H7 H6 H5 H4 H3 H2 H1 G8 G7 G6 G1 G2 G3 M1 N3 N4"/>
  <route id="170" edges="F4b H8 H7 H6 H5 H4 H3 H2 H1 G8 G7 G6 G1 G2 G3 M1 N3 E3"/>
  <route id="171" edges="F4b H9b H10b H11b"/>
  <route id="172" edges="F4b H8 F5"/>
  <route id="173" edges="F4b H8 F6"/>
  <route id="174" edges="F4b H8 H7 F7"/>
  <route id="175" edges="F4b H8 H7 F8"/>
  <route id="176" edges="F4b H8 H7 H6 F9"/>
  <route id="177" edges="F4b H8 H7 H6 F10"/>
  <route id="178" edges="F4b H8 H7 H6 H5 F11"/>
  <route id="179" edges="F4b H8 H7 H6 H5 F12"/>
  <route id="180" edges="F4b H8 H7 H6 H5 H4 F13"/>
  <route id="181" edges="F4b H8 H7 H6 H5 H4 F14"/>
  <route id="182" edges="F4b H8 H7 H6 H5 H4 H3 F15"/>
  <route id="183" edges="F4b H8 H7 H6 H5 H4 H3 H2 F17"/>
  <route id="184" edges="F4b H8 H7 H6 H5 H4 H3 H2 H1 G8 F18"/>
  <route id="185" edges="F5b H7 H6 H5 H4 H3 H2 H1"/>
  <route id="186" edges="F5b H7 H6 H5 H4 H3 H2 H1 G8 G7 G6 G1 G2 E2"/>
  <route id="187" edges="F5b H7 H6 H5 H4 H3 H2 H1 G8 G7 G6 G1 G2 G3 G4 N1b"/>
  <route id="188" edges="F5b H7 H6 H5 H4 H3 H2 H1 G8 G7 G6 G1 G2 G3 G4 G5b"/>
  <route id="189" edges="F5b H7 H6 H5 H4 H3 H2 H1 G8 G7 G6 G1 G2 G3 M1 N3 N4"/>
  <route id="190" edges="F5b H7 H6 H5 H4 H3 H2 H1 G8 G7 G6 G1 G2 G3 M1 N3 E3"/>
  <route id="191" edges="F5b F6"/>
  <route id="192" edges="F5b H7 F7"/>
  <route id="193" edges="F5b H7 F8"/>
  <route id="194" edges="F5b H7 H6 F9"/>
  <route id="195" edges="F5b H7 H6 F10"/>
  <route id="196" edges="F5b H7 H6 H5 F11"/>
  <route id="197" edges="F5b H7 H6 H5 F12"/>
  <route id="198" edges="F5b H7 H6 H5 H4 F13"/>
  <route id="199" edges="F5b H7 H6 H5 H4 F14"/>
  <route id="200" edges="F5b H7 H6 H5 H4 H3 F15"/>
  <route id="201" edges="F5b H7 H6 H5 H4 H3 H2 F17"/>
  <route id="202" edges="F5b H7 H6 H5 H4 H3 H2 H1 G8 F18"/>
  <route id="203" edges="F6b H7 H6 H5 H4 H3 H2 H1"/>
  <route id="204" edges="F6b H7 H6 H5 H4 H3 H2 H1 G8 G7 G6 G1 G2 E2"/>
  <route id="205" edges="F6b H7 H6 H5 H4 H3 H2 H1 G8 G7 G6 G1 G2 G3 G4 N1b"/>
  <route id="206" edges="F6b H7 H6 H5 H4 H3 H2 H1 G8 G7 G6 G1 G2 G3 G4 G5b"/>
  <route id="207" edges="F6b H7 H6 H5 H4 H3 H2 H1 G8 G7 G6 G1 G2 G3 M1 N3 N4"/>
  <route id="208" edges="F6b H7 H6 H5 H4 H3 H2 H1 G8 G7 G6 G1 G2 G3 M1 N3 E3"/>
  <route id="209" edges="F6b H8b H9b H10b H11b"/>
  <route id="210" edges="F6b H8b F4"/>
  <route id="211" edges="F6b F5"/>
  <route id="212" edges="F6b H7 F7"/>
  <route id="213" edges="F6b H7 F8"/>
  <route id="214" edges="F6b H7 H6 F9"/>
  <route id="215" edges="F6b H7 H6 F10"/>
  <route id="216" edges="F6b H7 H6 H5 F11"/>
  <route id="217" edges="F6b H7 H6 H5 F12"/>
  <route id="218" edges="F6b H7 H6 H5 H4 F13"/>
  <route id="219" edges="F6b H7 H6 H5 H4 F14"/>
  <route id="220" edges="F6b H7 H6 H5 H4 H3 F15"/>
  <route id="221" edges="F6b H7 H6 H5 H4 H3 H2 F17"/>
  <route id="222" edges="F6b H7 H6 H5 H4 H3 H2 H1 G8 F18"/>
  <route id="223" edges="F7b H6 H5 H4 H3 H2 H1"/>
  <route id="224" edges="F7b H6 H5 H4 H3 H2 H1 G8 G7 G6 G1 G2 E2"/>
  <route id="225" edges="F7b H6 H5 H4 H3 H2 H1 G8 G7 G6 G1 G2 G3 G4 N1b"/>
  <route id="226" edges="F7b H6 H5 H4 H3 H2 H1 G8 G7 G6 G1 G2 G3 G4 G5b"/>
  <route id="227" edges="F7b H6 H5 H4 H3 H2 H1 G8 G7 G6 G1 G2 G3 M1 N3 N4"/>
  <route id="228" edges="F7b H6 H5 H4 H3 H2 H1 G8 G7 G6 G1 G2 G3 M1 N3 E3"/>
  <route id="229" edges="F7b F8"/>
  <route id="230" edges="F7b H6 F9"/>
  <route id="231" edges="F7b H6 F10"/>
  <route id="232" edges="F7b H6 H5 F11"/>
  <route id="233" edges="F7b H6 H5 F12"/>
  <route id="234" edges="F7b H6 H5 H4 F13"/>
  <route id="235" edges="F7b H6 H5 H4 F14"/>
  <route id="236" edges="F7b H6 H5 H4 H3 F15"/>
  <route id="237" edges="F7b H6 H5 H4 H3 H2 F17"/>
  <route id="238" edges="F7b H6 H5 H4 H3 H2 H1 G8 F18"/>
  <route id="239" edges="F8b H6 H5 H4 H3 H2 H1"/>
  <route id="240" edges="F8b H6 H5 H4 H3 H2 H1 G8 G7 G6 G1 G2 E2"/>
  <route id="241" edges="F8b H6 H5 H4 H3 H2 H1 G8 G7 G6 G1 G2 G3 G4 N1b"/>
  <route id="242" edges="F8b H6 H5 H4 H3 H2 H1 G8 G7 G6 G1 G2 G3 G4 G5b"/>
  <route id="243" edges="F8b H6 H5 H4 H3 H2 H1 G8 G7 G6 G1 G2 G3 M1 N3 N4"/>
  <route id="244" edges="F8b H6 H5 H4 H3 H2 H1 G8 G7 G6 G1 G2 G3 M1 N3 E3"/>
  <route id="245" edges="F8b H7b H8b H9b H10b H11b"/>
  <route id="246" edges="F8b H7b H8b F4"/>
  <route id="247" edges="F8b H7b F5"/>
  <route id="248" edges="F8b H7b F6"/>
  <route id="249" edges="F8b F7"/>
  <route id="250" edges="F8b H6 F9"/>
  <route id="251" edges="F8b H6 F10"/>
  <route id="252" edges="F8b H6 H5 F11"/>
  <route id="253" edges="F8b H6 H5 F12"/>
  <route id="254" edges="F8b H6 H5 H4 F13"/>
  <route id="255" edges="F8b H6 H5 H4 F14"/>
  <route id="256" edges="F8b H6 H5 H4 H3 F15"/>
  <route id="257" edges="F8b H6 H5 H4 H3 H2 F17"/>
  <route id="258" edges="F8b H6 H5 H4 H3 H2 H1 G8 F18"/>
  <route id="259" edges="F9b H5 H4 H3 H2 H1"/>
  <route id="260" edges="F9b H5 H4 H3 H2 H1 G8 G7 G6 G1 G2 E2"/>
  <route id="261" edges="F9b H5 H4 H3 H2 H1 G8 G7 G6 G1 G2 G3 G4 N1b"/>
  <route id="262" edges="F9b H5 H4 H3 H2 H1 G8 G7 G6 G1 G2 G3 G4 G5b"/>
  <route id="263" edges="F9b H5 H4 H3 H2 H1 G8 G7 G6 G1 G2 G3 M1 N3 N4"/>
  <route id="264" edges="F9b H5 H4 H3 H2 H1 G8 G7 G6 G1 G2 G3 M1 N3 E3"/>
  <route id="265" edges="F9b H6b H7b H8b H9b H10b H11b"/>
  <route id="266" edges="F9b H6b H7b H8b F4"/>
  <route id="267" edges="F9b H6b H7b F5"/>
  <route id="268" edges="F9b H6b H7b F6"/>
  <route id="269" edges="F9b H6b F7"/>
  <route id="270" edges="F9b H6b F8"/>
  <route id="271" edges="F9b F10"/>
  <route id="272" edges="F9b H5 F11"/>
  <route id="273" edges="F9b H5 F12"/>
  <route id="274" edges="F9b H5 H4 F13"/>
  <route id="275" edges="F9b H5 H4 F14"/>
  <route id="276" edges="F9b H5 H4 H3 F15"/>
  <route id="277" edges="F9b H5 H4 H3 H2 F17"/>
  <route id="278" edges="F9b H5 H4 H3 H2 H1 G8 F18"/>
  <route id="279" edges="F10b H5 H4 H3 H2 H1"/>
  <route id="280" edges="F10b H5 H4 H3 H2 H1 G8 G7 G6 G1 G2 E2"/>
  <route id="281" edges="F10b H5 H4 H3 H2 H1 G8 G7 G6 G1 G2 G3 G4 N1b"/>
  <route id="282" edges="F10b H5 H4 H3 H2 H1 G8 G7 G6 G1 G2 G3 G4 G5b"/>
  <route id="283" edges="F10b H5 H4 H3 H2 H1 G8 G7 G6 G1 G2 G3 M1 N3 N4"/>
  <route id="284" edges="F10b H5 H4 H3 H2 H1 G8 G7 G6 G1 G2 G3 M1 N3 E3"/>
  <route id="285" edges="F10b H6b H7b H8b H9b H10b H11b"/>
  <route id="286" edges="F10b H6b H7b H8b F4"/>
  <route id="287" edges="F10b H6b H7b F5"/>
  <route id="288" edges="F10b H6b H7b F6"/>
  <route id="289" edges="F10b H6b F7"/>
  <route id="290" edges="F10b H6b F8"/>
  <route id="291" edges="F10b F9"/>
  <route id="292" edges="F10b H5 F11"/>
  <route id="293" edges="F10b H5 F12"/>
  <route id="294" edges="F10b H5 H4 F13"/>
  <route id="295" edges="F10b H5 H4 F14"/>
  <route id="296" edges="F10b H5 H4 H3 F15"/>
  <route id="297" edges="F10b H5 H4 H3 H2 F17"/>
  <route id="298" edges="F10b H5 H4 H3 H2 H1 G8 F18"/>
  <route id="299" edges="F11b H4 H3 H2 H1"/>
  <route id="300" edges="F11b H4 H3 H2 H1 G8 G7 G6 G1 G2 E2"/>
  <route id="301" edges="F11b H4 H3 H2 H1 G8 G7 G6 G1 G2 G3 G4 N1b"/>
  <route id="302" edges="F11b H4 H3 H2 H1 G8 G7 G6 G1 G2 G3 G4 G5b"/>
  <route id="303" edges="F11b H4 H3 H2 H1 G8 G7 G6 G1 G2 G3 M1 N3 N4"/>
  <route id="304" edges="F11b H4 H3 H2 H1 G8 G7 G6 G1 G2 G3 M1 N3 E3"/>
  <route id="305" edges="F11b F12"/>
  <route id="306" edges="F11b H4 F13"/>
  <route id="307" edges="F11b H4 F14"/>
  <route id="308" edges="F11b H4 H3 F15"/>
  <route id="309" edges="F11b H4 H3 H2 F17"/>
  <route id="310" edges="F11b H4 H3 H2 H1 G8 F18"/>
  <route id="311" edges="F12b H4 H3 H2 H1"/>
  <route id="312" edges="F12b H4 H3 H2 H1 G8 G7 G6 G1 G2 E2"/>
  <route id="313" edges="F12b H4 H3 H2 H1 G8 G7 G6 G1 G2 G3 G4 N1b"/>
  <route id="314" edges="F12b H4 H3 H2 H1 G8 G7 G6 G1 G2 G3 G4 G5b"/>
  <route id="315" edges="F12b H4 H3 H2 H1 G8 G7 G6 G1 G2 G3 M1 N3 N4"/>
  <route id="316" edges="F12b H4 H3 H2 H1 G8 G7 G6 G1 G2 G3 M1 N3 E3"/>
  <route id="317" edges="F12b H5b H6b H7b H8b H9b H10b H11b"/>
  <route id="318" edges="F12b H5b H6b H7b H8b F4"/>
  <route id="319" edges="F12b H5b H6b H7b F5"/>
  <route id="320" edges="F12b H5b H6b H7b F6"/>
  <route id="321" edges="F12b H5b H6b F7"/>
  <route id="322" edges="F12b H5b H6b F8"/>
  <route id="323" edges="F12b H5b F9"/>
  <route id="324" edges="F12b H5b F10"/>
  <route id="325" edges="F12b F11"/>
  <route id="326" edges="F12b H4 F13"/>
  <route id="327" edges="F12b H4 F14"/>
  <route id="328" edges="F12b H4 H3 F15"/>
  <route id="329" edges="F12b H4 H3 H2 F17"/>
  <route id="330" edges="F12b H4 H3 H2 H1 G8 F18"/>
  <route id="331" edges="F13b H3 H2 H1"/>
  <route id="332" edges="F13b H3 H2 H1 G8 G7 G6 G1 G2 E2"/>
  <route id="333" edges="F13b H3 H2 H1 G8 G7 G6 G1 G2 G3 G4 N1b"/>
  <route id="334" edges="F13b H3 H2 H1 G8 G7 G6 G1 G2 G3 G4 G5b"/>
  <route id="335" edges="F13b H3 H2 H1 G8 G7 G6 G1 G2 G3 M1 N3 N4"/>
  <route id="336" edges="F13b H3 H2 H1 G8 G7 G6 G1 G2 G3 M1 N3 E3"/>
  <route id="337" edges="F13b H4b H5b H6b H7b H8b H9b H10b H11b"/>
  <route id="338" edges="F13b H4b H5b H6b H7b H8b F4"/>
  <route id="339" edges="F13b H4b H5b H6b H7b F5"/>
  <route id="340" edges="F13b H4b H5b H6b H7b F6"/>
  <route id="341" edges="F13b H4b H5b H6b F7"/>
  <route id="342" edges="F13b H4b H5b H6b F8"/>
  <route id="343" edges="F13b H4b H5b F9"/>
  <route id="344" edges="F13b H4b H5b F10"/>
  <route id="345" edges="F13b H4b F11"/>
  <route id="346" edges="F13b H4b F12"/>
  <route id="347" edges="F13b F14"/>
  <route id="348" edges="F13b H3 F15"/>
  <route id="349" edges="F13b H3 H2 F17"/>
  <route id="350" edges="F13b H3 H2 H1 G8 F18"/>
  <route id="351" edges="F14b H3 H2 H1"/>
  <route id="352" edges="F14b H3 H2 H1 G8 G7 G6 G1 G2 E2"/>
  <route id="353" edges="F14b H3 H2 H1 G8 G7 G6 G1 G2 G3 G4 N1b"/>
  <route id="354" edges="F14b H3 H2 H1 G8 G7 G6 G1 G2 G3 G4 G5b"/>
  <route id="355" edges="F14b H3 H2 H1 G8 G7 G6 G1 G2 G3 M1 N3 N4"/>
  <route id="356" edges="F14b H3 H2 H1 G8 G7 G6 G1 G2 G3 M1 N3 E3"/>
  <route id="357" edges="F14b H4b H5b H6b H7b H8b H9b H10b H11b"/>
  <route id="358" edges="F14b H4b H5b H6b H7b H8b F4"/>
  <route id="359" edges="F14b H4b H5b H6b H7b F5"/>
  <route id="360" edges="F14b H4b H5b H6b H7b F6"/>
  <route id="361" edges="F14b H4b H5b H6b F7"/>
  <route id="362" edges="F14b H4b H5b H6b F8"/>
  <route id="363" edges="F14b H4b H5b F9"/>
  <route id="364" edges="F14b H4b H5b F10"/>
  <route id="365" edges="F14b H4b F11"/>
  <route id="366" edges="F14b H4b F12"/>
  <route id="367" edges="F14b F13"/>
  <route id="368" edges="F14b H3 F15"/>
  <route id="369" edges="F14b H3 H2 F17"/>
  <route id="370" edges="F14b H3 H2 H1 G8 F18"/>
  <route id="371" edges="F15b H2 H1"/>
  <route id="372" edges="F15b H2 H1 G8 G7 G6 G1 G2 E2"/>
  <route id="373" edges="F15b H2 H1 G8 G7 G6 G1 G2 G3 G4 N1b"/>
  <route id="374" edges="F15b H2 H1 G8 G7 G6 G1 G2 G3 G4 G5b"/>
  <route id="375" edges="F15b H2 H1 G8 G7 G6 G1 G2 G3 M1 N3 N4"/>
  <route id="376" edges="F15b H2 H1 G8 G7 G6 G1 G2 G3 M1 N3 E3"/>
  <route id="377" edges="F15b H3b H4b H5b H6b H7b H8b H9b H10b H11b"/>
  <route id="378" edges="F15b H3b H4b H5b H6b H7b H8b F4"/>
  <route id="379" edges="F15b H3b H4b H5b H6b H7b F5"/>
  <route id="380" edges="F15b H3b H4b H5b H6b H7b F6"/>
  <route id="381" edges="F15b H3b H4b H5b H6b F7"/>
  <route id="382" edges="F15b H3b H4b H5b H6b F8"/>
  <route id="383" edges="F15b H3b H4b H5b F9"/>
  <route id="384" edges="F15b H3b H4b H5b F10"/>
  <route id="385" edges="F15b H3b H4b F11"/>
  <route id="386" edges="F15b H3b H4b F12"/>
  <route id="387" edges="F15b H3b F13"/>
  <route id="388" edges="F15b H3b F14"/>
  <route id="389" edges="F15b H2 F17"/>
  <route id="390" edges="F15b H2 H1 G8 F18"/>
  <route id="391" edges="F16 H2 H1"/>
  <route id="392" edges="F16 H2 H1 G8 G7 G6 G1 G2 E2"/>
  <route id="393" edges="F16 H2 H1 G8 G7 G6 G1 G2 G3 G4 N1b"/>
  <route id="394" edges="F16 H2 H1 G8 G7 G6 G1 G2 G3 G4 G5b"/>
  <route id="395" edges="F16 H2 H1 G8 G7 G6 G1 G2 G3 M1 N3 N4"/>
  <route id="396" edges="F16 H2 H1 G8 G7 G6 G1 G2 G3 M1 N3 E3"/>
  <route id="397" edges="F16 H3b H4b H5b H6b H7b H8b H9b H10b H11b"/>
  <route id="398" edges="F16 H3b H4b H5b H6b H7b H8b F4"/>
  <route id="399" edges="F16 H3b H4b H5b H6b H7b F5"/>
  <route id="400" edges="F16 H3b H4b H5b H6b H7b F6"/>
  <route id="401" edges="F16 H3b H4b H5b H6b F7"/>
  <route id="402" edges="F16 H3b H4b H5b H6b F8"/>
  <route id="403" edges="F16 H3b H4b H5b F9"/>
  <route id="404" edges="F16 H3b H4b H5b F10"/>
  <route id="405" edges="F16 H3b H4b F11"/>
  <route id="406" edges="F16 H3b H4b F12"/>
  <route id="407" edges="F16 H3b F13"/>
  <route id="408" edges="F16 H3b F14"/>
  <route id="409" edges="F16 F15"/>
  <route id="410" edges="F16 H2 F17"/>
  <route id="411" edges="F16 H2 H1 G8 F18"/>
  <route id="412" edges="F18b G8b"/>
  <route id="413" edges="F18b G7 G6 G1 G2 E2"/>
  <route id="414" edges="F18b G7 G6 G1 G2 G3 G4 N1b"/>
  <route id="415" edges="F18b G7 G6 G1 G2 G3 G4 G5b"/>
  <route id="416" edges="F18b G7 G6 G1 G2 G3 M1 N3 N4"/>
  <route id="417" edges="F18b G7 G6 G1 G2 G3 M1 N3 E3"/>
  <route id="418" edges="F18b G8b H1b H2b H3b H4b H5b H6b H7b H8b H9b H10b H11b"/>
  <route id="419" edges="F18b G8b H1b H2b H3b H4b H5b H6b H7b H8b F4"/>
  <route id="420" edges="F18b G8b H1b H2b H3b H4b H5b H6b H7b F5"/>
  <route id="421" edges="F18b G8b H1b H2b H3b H4b H5b H6b H7b F6"/>
  <route id="422" edges="F18b G8b H1b H2b H3b H4b H5b H6b F7"/>
  <route id="423" edges="F18b G8b H1b H2b H3b H4b H5b H6b F8"/>
  <route id="424" edges="F18b G8b H1b H2b H3b H4b H5b F9"/>
  <route id="425" edges="F18b G8b H1b H2b H3b H4b H5b F10"/>
  <route id="426" edges="F18b G8b H1b H2b H3b H4b F11"/>
  <route id="427" edges="F18b G8b H1b H2b H3b H4b F12"/>
  <route id="428" edges="F18b G8b H1b H2b H3b F13"/>
  <route id="429" edges="F18b G8b H1b H2b H3b F14"/>
  <route id="430" edges="F18b G8b H1b H2b F15"/>
  <route id="431" edges="F18b G8b H1b F17"/>

  <vehicle depart="0" id="veh1" route="21" type="CarA"/>
  <vehicle depart="0" id="veh2" route="40" type="CarM"/>
  <vehicle depart="0" id="veh3" route="42" type="CarA"/>
  <vehicle depart="0" id="veh4" route="78" type="CarM"/>
  <vehicle depart="0" id="veh5" route="101" type="CarM"/>
  <vehicle depart="0" id="veh6" route="397" type="CarM"/>
  <vehicle depart="1" id="veh7" route="15" type="CarA"/>
  <vehicle depart="1" id="veh8" route="22" type="CarA"/>
  <vehicle depart="1" id="veh9" route="61" type="CarM"/>
  <vehicle depart="1" id="veh10" route="67" type="CarA"/>
  <vehicle depart="1" id="veh11" route="85" type="CarA"/>
  <vehicle depart="1" id="veh12" route="115" type="CarM"/>
  <vehicle depart="1" id="veh13" route="191" type="CarA"/>
  <vehicle depart="2" id="veh14" route="2" type="CarA"/>
  <vehicle depart="2" id="veh15" route="22" type="CarA"/>
  <vehicle depart="2" id="veh16" route="42" type="CarA"/>
  <vehicle depart="2" id="veh17" route="64" type="CarA"/>
  <vehicle depart="2" id="veh18" route="87" type="CarA"/>
  <vehicle depart="2" id="veh19" route="114" type="CarM"/>
  <vehicle depart="2" id="veh20" route="367" type="CarA"/>
  <vehicle depart="3" id="veh21" route="3" type="CarM"/>
  <vehicle depart="3" id="veh22" route="41" type="CarA"/>
  <vehicle depart="3" id="veh23" route="45" type="CarA"/>
  <vehicle depart="3" id="veh24" route="62" type="CarM"/>
  <vehicle depart="3" id="veh25" route="84" type="CarM"/>
  <vehicle depart="4" id="veh26" route="4" type="CarA"/>
  <vehicle depart="4" id="veh27" route="41" type="CarA"/>
  <vehicle depart="4" id="veh28" route="42" type="CarM"/>
  <vehicle depart="4" id="veh29" route="62" type="CarM"/>
  <vehicle depart="4" id="veh30" route="84" type="CarM"/>
  <vehicle depart="4" id="veh31" route="230" type="CarM"/>
  <vehicle depart="4" id="veh32" route="409" type="CarM"/>
  <vehicle depart="5" id="veh33" route="2" type="CarM"/>
  <vehicle depart="5" id="veh34" route="22" type="CarA"/>
  <vehicle depart="5" id="veh35" route="45" type="CarA"/>
  <vehicle depart="5" id="veh36" route="62" type="CarA"/>
  <vehicle depart="5" id="veh37" route="82" type="CarM"/>
  <vehicle depart="6" id="veh38" route="1" type="CarM"/>
  <vehicle depart="6" id="veh39" route="23" type="CarM"/>
  <vehicle depart="6" id="veh40" route="45" type="CarA"/>
  <vehicle depart="6" id="veh41" route="65" type="CarM"/>
  <vehicle depart="6" id="veh42" route="84" type="CarA"/>
  <vehicle depart="6" id="veh43" route="110" type="CarM"/>
  <vehicle depart="7" id="veh44" route="21" type="CarM"/>
  <vehicle depart="7" id="veh45" route="24" type="CarM"/>
  <vehicle depart="7" id="veh46" route="45" type="CarA"/>
  <vehicle depart="7" id="veh47" route="67" type="CarM"/>
  <vehicle depart="7" id="veh48" route="84" type="CarM"/>
  <vehicle depart="7" id="veh49" route="263" type="CarA"/>
  <vehicle depart="7" id="veh50" route="367" type="CarA"/>
  <vehicle depart="8" id="veh51" route="5" type="CarA"/>
  <vehicle depart="8" id="veh52" route="27" type="CarA"/>
  <vehicle depart="8" id="veh53" route="61" type="CarA"/>
  <vehicle depart="8" id="veh54" route="66" type="CarA"/>
  <vehicle depart="8" id="veh55" route="85" type="CarA"/>
  <vehicle depart="8" id="veh56" route="102" type="CarM"/>
  <vehicle depart="8" id="veh57" route="403" type="CarM"/>
  <vehicle depart="9" id="veh58" route="1" type="CarM"/>
  <vehicle depart="9" id="veh59" route="40" type="CarM"/>
  <vehicle depart="9" id="veh60" route="45" type="CarA"/>
  <vehicle depart="9" id="veh61" route="62" type="CarA"/>
  <vehicle depart="9" id="veh62" route="84" type="CarM"/>
  <vehicle depart="9" id="veh63" route="291" type="CarM"/>
  <vehicle depart="10" id="veh64" route="5" type="CarA"/>
  <vehicle depart="10" id="veh65" route="22" type="CarM"/>
  <vehicle depart="10" id="veh66" route="45" type="CarM"/>
  <vehicle depart="10" id="veh67" route="62" type="CarM"/>
  <vehicle depart="10" id="veh68" route="84" type="CarA"/>
  <vehicle depart="10" id="veh69" route="119" type="CarA"/>
  <vehicle depart="10" id="veh70" route="371" type="CarM"/>
  <vehicle depart="11" id="veh71" route="21" type="CarA"/>
  <vehicle depart="11" id="veh72" route="22" type="CarM"/>
  <vehicle depart="11" id="veh73" route="45" type="CarA"/>
  <vehicle depart="11" id="veh74" route="81" type="CarA"/>
  <vehicle depart="11" id="veh75" route="87" type="CarM"/>
  <vehicle depart="11" id="veh76" route="409" type="CarM"/>
  <vehicle depart="12" id="veh77" route="1" type="CarA"/>
  <vehicle depart="12" id="veh78" route="25" type="CarM"/>
  <vehicle depart="12" id="veh79" route="45" type="CarM"/>
  <vehicle depart="12" id="veh80" route="77" type="CarM"/>
  <vehicle depart="12" id="veh81" route="86" type="CarA"/>